Version 4
SHEET 1 1256 680
WIRE 176 -752 144 -752
WIRE 304 -752 256 -752
WIRE 448 -752 368 -752
WIRE 560 -752 448 -752
WIRE 448 -720 448 -752
WIRE 560 -720 560 -752
WIRE 448 -624 448 -656
WIRE 560 -624 560 -640
WIRE 592 -464 592 -528
WIRE 736 -464 592 -464
WIRE 592 -432 592 -464
WIRE 736 -432 736 -464
WIRE 144 -288 144 -752
WIRE 192 -288 144 -288
WIRE 512 -288 272 -288
WIRE 592 -288 592 -368
WIRE 592 -288 576 -288
WIRE 736 -288 736 -352
WIRE 736 -288 592 -288
WIRE 144 -192 144 -288
WIRE 192 -192 144 -192
WIRE 512 -192 272 -192
WIRE 608 -192 576 -192
WIRE 672 -192 608 -192
WIRE 1040 -192 672 -192
WIRE 1040 -160 1040 -192
WIRE 144 -128 144 -192
WIRE 672 -128 672 -192
WIRE 192 -80 144 -80
WIRE 304 -80 272 -80
WIRE 672 -32 672 -64
WIRE 1040 -32 1040 -80
WIRE -1200 32 -1280 32
WIRE -1072 32 -1200 32
WIRE -1008 32 -1072 32
WIRE -944 32 -1008 32
WIRE -880 32 -944 32
WIRE -384 32 -880 32
WIRE -336 32 -384 32
WIRE -160 32 -256 32
WIRE 144 32 144 -80
WIRE 144 32 -160 32
WIRE -1360 64 -1488 64
WIRE -1280 64 -1280 32
WIRE -1200 64 -1200 32
WIRE 144 64 144 32
WIRE 304 64 304 -80
WIRE 608 64 608 -192
WIRE -1488 112 -1488 64
WIRE -1072 128 -1072 32
WIRE -1008 128 -1008 32
WIRE -944 128 -944 32
WIRE -880 128 -880 32
WIRE -1360 144 -1360 64
WIRE -1280 144 -1280 128
WIRE -1280 144 -1360 144
WIRE -1200 160 -1200 128
WIRE -1200 160 -1408 160
WIRE -160 160 -160 32
WIRE 64 160 -160 160
WIRE 608 160 608 144
WIRE 608 160 384 160
WIRE -1280 176 -1280 144
WIRE -1200 176 -1200 160
WIRE 608 176 608 160
WIRE -384 208 -384 32
WIRE -1488 240 -1488 192
WIRE -1408 240 -1408 160
WIRE -1408 240 -1488 240
WIRE -160 240 -160 160
WIRE -1280 288 -1280 240
WIRE -1200 288 -1200 240
WIRE -1200 288 -1280 288
WIRE -1072 288 -1072 192
WIRE -1072 288 -1200 288
WIRE -1008 288 -1008 192
WIRE -1008 288 -1072 288
WIRE -944 288 -944 192
WIRE -944 288 -1008 288
WIRE -880 288 -880 192
WIRE -880 288 -944 288
WIRE 224 288 224 256
WIRE 608 304 608 256
WIRE -1200 336 -1200 288
WIRE -384 352 -384 272
WIRE -160 352 -160 304
FLAG 672 -32 0
FLAG -1200 336 0
FLAG 608 304 0
FLAG 224 288 0
FLAG 672 -192 Vout
FLAG 1040 -32 0
FLAG -160 352 0
FLAG -160 32 Vin
FLAG -384 352 0
FLAG 144 -128 0
FLAG 592 -528 0
FLAG 448 -624 0
FLAG 560 -624 0
SYMBOL ind2 288 -96 R90
WINDOW 0 5 56 VBottom 2
WINDOW 3 32 56 VTop 2
SYMATTR InstName L1
SYMATTR Value 15µH
SYMATTR Type ind
SYMBOL ind2 288 -208 R90
WINDOW 0 5 56 VBottom 2
WINDOW 3 32 56 VTop 2
SYMATTR InstName L2
SYMATTR Value 7.5µH
SYMATTR Type ind
SYMBOL cap 656 -128 R0
SYMATTR InstName C2
SYMATTR Value 4.7µ
SYMATTR SpiceLine V=25 Irms=0 Rser=0.004 Lser=0 mfg="TDK" pn="C4532X7RIE475M" type="X7R"
SYMBOL voltage -1488 96 R0
WINDOW 123 0 0 Left 0
WINDOW 39 0 0 Left 0
WINDOW 3 -213 99 Left 2
SYMATTR Value SINE(0 16.8 50)
SYMATTR InstName V1
SYMBOL res 592 48 R0
SYMATTR InstName R1
SYMATTR Value 113K
SYMBOL res 592 160 R0
SYMATTR InstName R2
SYMATTR Value 13.3K
SYMBOL res 1024 -176 R0
SYMATTR InstName R3
SYMATTR Value 1K
SYMBOL ind2 -240 16 R90
WINDOW 0 5 56 VBottom 2
WINDOW 3 32 56 VTop 2
SYMATTR InstName L4
SYMATTR Value 1000n
SYMATTR Type ind
SYMATTR SpiceLine Ipk=0.8 Rser=0.19 Rpar=0 Cpar=0 mfg="Murata" pn="LQM21PN1R0MC0"
SYMBOL cap -400 208 R0
SYMATTR InstName C4
SYMATTR Value 1µ
SYMATTR SpiceLine V=25 Irms=3.41 Rser=0.0133158 Lser=0 mfg="KEMET" pn="C1206C105K3RAC" type="X7R"
SYMBOL PowerProducts\\LT1930 224 160 R0
SYMATTR InstName U2
SYMBOL diode -1264 128 R180
WINDOW 0 24 64 Left 2
WINDOW 3 24 0 Left 2
SYMATTR InstName D2
SYMBOL diode -1184 128 R180
WINDOW 0 24 64 Left 2
WINDOW 3 24 0 Left 2
SYMATTR InstName D3
SYMBOL diode -1264 240 R180
WINDOW 0 24 64 Left 2
WINDOW 3 24 0 Left 2
SYMATTR InstName D4
SYMBOL diode -1184 240 R180
WINDOW 0 24 64 Left 2
WINDOW 3 24 0 Left 2
SYMATTR InstName D5
SYMBOL ind2 176 -304 M90
WINDOW 0 5 56 VBottom 2
WINDOW 3 32 56 VTop 2
SYMATTR InstName L3
SYMATTR Value 7.5µH
SYMATTR Type ind
SYMBOL schottky 576 -272 M270
WINDOW 0 32 32 VTop 2
WINDOW 3 0 32 VBottom 2
SYMATTR InstName D6
SYMATTR Value SS24
SYMATTR Description Diode
SYMATTR Type diode
SYMBOL res 720 -448 R0
SYMATTR InstName R7
SYMATTR Value 1K
SYMBOL schottky 512 -176 R270
WINDOW 0 32 32 VTop 2
WINDOW 3 0 32 VBottom 2
SYMATTR InstName D7
SYMATTR Value SS24
SYMATTR Description Diode
SYMATTR Type diode
SYMBOL cap -1088 128 R0
SYMATTR InstName C1
SYMATTR Value 270µ
SYMATTR SpiceLine V=25 Irms=4.9 Rser=0.00761971 Lser=5.27318n mfg="Würth Elektronik" pn="870025575008 WCAP-PTG5 10 x 12,5" type="Al polymer"
SYMBOL cap -1024 128 R0
SYMATTR InstName C7
SYMATTR Value 270µ
SYMATTR SpiceLine V=25 Irms=4.9 Rser=0.00761971 Lser=5.27318n mfg="Würth Elektronik" pn="870025575008 WCAP-PTG5 10 x 12,5" type="Al polymer"
SYMBOL cap -960 128 R0
SYMATTR InstName C8
SYMATTR Value 270µ
SYMATTR SpiceLine V=25 Irms=4.9 Rser=0.00761971 Lser=5.27318n mfg="Würth Elektronik" pn="870025575008 WCAP-PTG5 10 x 12,5" type="Al polymer"
SYMBOL cap -896 128 R0
SYMATTR InstName C9
SYMATTR Value 270µ
SYMATTR SpiceLine V=25 Irms=4.9 Rser=0.00761971 Lser=5.27318n mfg="Würth Elektronik" pn="870025575008 WCAP-PTG5 10 x 12,5" type="Al polymer"
SYMBOL cap -176 240 R0
SYMATTR InstName C3
SYMATTR Value 1µ
SYMATTR SpiceLine V=25 Irms=3.41 Rser=0.0133158 Lser=0 mfg="KEMET" pn="C1206C105K3RAC" type="X7R"
SYMBOL cap 576 -432 R0
SYMATTR InstName C5
SYMATTR Value 4.7µ
SYMATTR SpiceLine V=25 Irms=0 Rser=0.004 Lser=0 mfg="TDK" pn="C4532X7RIE475M" type="X7R"
SYMBOL ind2 272 -768 R90
WINDOW 0 5 56 VBottom 2
WINDOW 3 32 56 VTop 2
SYMATTR InstName L5
SYMATTR Value 5.42µH
SYMATTR Type ind
SYMBOL schottky 304 -736 R270
WINDOW 0 32 32 VTop 2
WINDOW 3 0 32 VBottom 2
SYMATTR InstName D1
SYMATTR Value SS24
SYMATTR Description Diode
SYMATTR Type diode
SYMBOL cap 432 -720 R0
SYMATTR InstName C6
SYMATTR Value 1µ
SYMATTR SpiceLine V=25 Irms=3.41 Rser=0.0133158 Lser=0 mfg="KEMET" pn="C1206C105K3RAC" type="X7R"
SYMBOL res 544 -736 R0
SYMATTR InstName R4
SYMATTR Value 1K
TEXT 144 -864 Left 2 !K L1 L2 L3 L5 1
TEXT -240 472 Left 2 !.tran 0 1 1ms startup
TEXT 48 -808 Left 2 ;PA5099.006NLT 673-PA5099.006NLT (15u-7.5u-7.5u-5.42uH)
TEXT 424 -344 Left 2 ;SHOTTKY\nSS14
TEXT -1144 320 Left 2 ;860080474011 (710-860080474011)
TEXT -504 400 Left 2 ;C1206C105K3RAC7215 (80-C1206C105K3R7215)
TEXT -528 -40 Left 2 ;LQM21PN1R0MC0D ( 81-LQM21PN1R0MC0D)
TEXT 672 16 Left 2 ;C3216X7R1E475K160AC ( 810-C3216X7R1E475K)
TEXT -1344 -16 Left 2 ;DF005S1 (512-DF005S1)
