Version 4
SHEET 1 1512 680
WIRE -160 -128 -304 -128
WIRE 0 -128 -160 -128
WIRE 80 -128 0 -128
WIRE 192 -128 144 -128
WIRE 320 -128 192 -128
WIRE 432 -128 320 -128
WIRE 576 -128 496 -128
WIRE 816 -128 576 -128
WIRE 816 -96 816 -128
WIRE 0 -80 0 -128
WIRE 320 -80 320 -128
WIRE 1120 -48 864 -48
WIRE 0 48 0 -16
WIRE 320 48 320 0
WIRE 416 48 320 48
WIRE 672 48 480 48
WIRE 816 48 816 -16
WIRE 816 48 752 48
WIRE 944 48 816 48
WIRE 1120 48 1120 -48
WIRE 192 96 192 -128
WIRE 192 96 48 96
WIRE 320 96 320 48
WIRE 816 96 816 48
WIRE 1296 96 1168 96
WIRE 1424 96 1360 96
WIRE 944 112 944 48
WIRE -304 128 -304 -128
WIRE -160 128 -160 -128
WIRE 0 176 0 128
WIRE 576 224 576 -128
WIRE 944 256 944 192
WIRE 1024 256 944 256
WIRE 1424 272 1424 96
WIRE 944 288 944 256
WIRE 576 336 576 288
WIRE 1024 336 1024 256
WIRE 1024 336 992 336
WIRE 320 384 320 160
WIRE 528 384 320 384
WIRE -304 544 -304 208
WIRE -160 544 -160 208
WIRE -160 544 -304 544
WIRE 0 544 0 256
WIRE 0 544 -160 544
WIRE 576 544 576 416
WIRE 576 544 0 544
WIRE 816 544 816 160
WIRE 816 544 576 544
WIRE 944 544 944 368
WIRE 944 544 816 544
WIRE 1120 544 1120 128
WIRE 1120 544 944 544
WIRE 1424 544 1424 352
WIRE 1424 544 1120 544
WIRE 576 608 576 544
FLAG 576 608 0
SYMBOL potentiometer -16 32 R0
SYMATTR InstName U1
SYMATTR Value Rtot=1000K wiper=.5
SYMBOL res -16 160 R0
SYMATTR InstName R1
SYMATTR Value 100K
SYMBOL cap -16 -80 R0
SYMATTR InstName C1
SYMATTR Value 100nF
SYMBOL cap 144 -144 R90
WINDOW 0 0 32 VBottom 2
WINDOW 3 32 32 VTop 2
SYMATTR InstName C2
SYMATTR Value 4n7
SYMBOL res 304 -96 R0
SYMATTR InstName R2
SYMATTR Value 100K
SYMBOL cap 496 -144 R90
WINDOW 0 0 32 VBottom 2
WINDOW 3 32 32 VTop 2
SYMATTR InstName C3
SYMATTR Value 220pF
SYMBOL cap 480 32 R90
WINDOW 0 0 32 VBottom 2
WINDOW 3 32 32 VTop 2
SYMATTR InstName C4
SYMATTR Value 100nF
SYMBOL cap 304 96 R0
SYMATTR InstName C5
SYMATTR Value 10nF
SYMBOL res 768 32 R90
WINDOW 0 0 56 VBottom 2
WINDOW 3 32 56 VTop 2
SYMATTR InstName R3
SYMATTR Value 10K
SYMBOL cap 800 96 R0
SYMATTR InstName C6
SYMATTR Value 2n2
SYMBOL potentiometer 592 320 M0
SYMATTR InstName U2
SYMATTR Value Rtot=100K wiper=.5
SYMBOL cap 560 224 R0
SYMATTR InstName C7
SYMATTR Value 470pF
SYMBOL potentiometer 800 -112 R0
SYMATTR InstName U3
SYMATTR Value Rtot=220K wiper=.5
SYMBOL res 928 96 R0
SYMATTR InstName R4
SYMATTR Value 100K
SYMBOL potentiometer 928 272 R0
SYMATTR InstName U4
SYMATTR Value Rtot=1000K wiper=.5
SYMBOL potentiometer 1104 32 R0
SYMATTR InstName U5
SYMATTR Value Rtot=1000K wiper=.5
SYMBOL cap 1360 80 R90
WINDOW 0 0 32 VBottom 2
WINDOW 3 32 32 VTop 2
SYMATTR InstName C8
SYMATTR Value 22nF
SYMBOL res 1408 256 R0
SYMATTR InstName R5
SYMATTR Value 1Meg
SYMBOL res -176 112 R0
SYMATTR InstName R6
SYMATTR Value 220K
SYMBOL current -304 128 R0
WINDOW 123 24 108 Left 2
WINDOW 39 0 0 Left 0
SYMATTR InstName I1
SYMATTR Value ""
SYMATTR Value2 AC 1
TEXT 40 -240 Left 2 !.ac dec 10 1 10000
TEXT 48 -312 Left 2 !.lib C:\\Users\\marco\\Documents\\GitHub\\Marshall\\LTSPICE\\sub\\potentiometer.sub
