Version 4
SHEET 1 880 680
WIRE -704 -192 -848 -192
WIRE -672 -192 -704 -192
WIRE -576 -192 -592 -192
WIRE -512 -192 -576 -192
WIRE -400 -192 -432 -192
WIRE -400 -176 -400 -192
WIRE -96 -176 -400 -176
WIRE -16 -176 -16 -192
WIRE 192 -176 -16 -176
WIRE 368 -176 192 -176
WIRE -848 -144 -848 -192
WIRE -704 -144 -704 -192
WIRE 544 -112 416 -112
WIRE 192 -80 192 -176
WIRE 416 -80 416 -112
WIRE 544 -80 544 -112
WIRE -848 -64 -848 -80
WIRE -848 -64 -1024 -64
WIRE -576 -64 -576 -192
WIRE -400 -64 -400 -176
WIRE -1024 -48 -1024 -64
WIRE -704 -16 -704 -80
WIRE -704 -16 -944 -16
WIRE -848 16 -848 -64
WIRE -704 16 -704 -16
WIRE 368 32 368 -176
WIRE 416 32 416 0
WIRE 480 32 416 32
WIRE 544 32 544 0
WIRE 544 32 480 32
WIRE 192 48 192 0
WIRE -1024 64 -1024 32
WIRE -944 64 -944 -16
WIRE -944 64 -1024 64
WIRE 192 80 192 48
WIRE 480 96 480 32
WIRE -848 128 -848 80
WIRE -704 128 -704 80
WIRE -704 128 -848 128
WIRE -576 128 -576 0
WIRE -576 128 -704 128
WIRE -560 128 -576 128
WIRE -400 128 -400 0
WIRE -400 128 -560 128
WIRE 368 128 368 112
WIRE 368 128 240 128
WIRE -560 144 -560 128
WIRE 128 144 -32 144
WIRE 144 144 128 144
WIRE -32 160 -32 144
WIRE -32 160 -96 160
WIRE 16 160 -32 160
WIRE 160 240 160 192
WIRE 320 240 160 240
WIRE -96 256 -96 160
WIRE 16 256 16 160
WIRE 160 288 160 240
WIRE 320 288 320 240
WIRE -96 384 -96 336
WIRE 16 448 16 336
WIRE 160 448 160 368
WIRE 320 448 320 352
FLAG 160 448 0
FLAG 480 96 0
FLAG -96 384 0
FLAG 16 448 0
FLAG 544 -112 Vout
FLAG 320 448 0
FLAG 192 48 A
FLAG 160 240 K
FLAG 128 144 G
FLAG -560 144 0
DATAFLAG 224 -176 ""
DATAFLAG 272 240 ""
SYMBOL ind2 176 -96 R0
SYMATTR InstName L1
SYMATTR Value 150H
SYMATTR Type ind
SYMATTR SpiceLine Rser=10
SYMBOL ind2 400 -96 R0
SYMATTR InstName L2
SYMATTR Value 0.24H
SYMATTR Type ind
SYMBOL voltage -1024 -64 R0
WINDOW 123 0 0 Left 0
WINDOW 39 0 0 Left 0
WINDOW 3 -164 101 Left 2
SYMATTR InstName V1
SYMATTR Value SINE(0 308 50)
SYMBOL res 144 272 R0
SYMATTR InstName R1
SYMATTR Value 200
SYMBOL res 352 16 R0
SYMATTR InstName R3
SYMATTR Value 1K
SYMBOL res 528 -96 R0
SYMATTR InstName R4
SYMATTR Value 8
SYMBOL voltage -96 240 R0
WINDOW 3 -280 96 Left 2
WINDOW 123 0 0 Left 0
WINDOW 39 0 0 Left 0
SYMATTR Value SINE(0 0 1000)
SYMATTR InstName V2
SYMBOL res 0 240 R0
SYMATTR InstName R5
SYMATTR Value 470K
SYMBOL Misc\\tetrode 192 128 R0
SYMATTR InstName U2
SYMATTR Value 6BQ5
SYMBOL cap 304 288 R0
SYMATTR InstName C1
SYMATTR Value 100µF
SYMBOL diode -832 -80 R180
WINDOW 0 24 64 Left 2
WINDOW 3 24 0 Left 2
SYMATTR InstName D1
SYMBOL diode -688 -80 R180
WINDOW 0 24 64 Left 2
WINDOW 3 24 0 Left 2
SYMATTR InstName D2
SYMBOL diode -832 80 R180
WINDOW 0 24 64 Left 2
WINDOW 3 24 0 Left 2
SYMATTR InstName D3
SYMBOL diode -688 80 R180
WINDOW 0 24 64 Left 2
WINDOW 3 24 0 Left 2
SYMATTR InstName D4
SYMBOL cap -592 -64 R0
SYMATTR InstName C2
SYMATTR Value 400µF
SYMBOL ind -416 -208 R90
WINDOW 0 5 56 VBottom 2
WINDOW 3 32 56 VTop 2
SYMATTR InstName L3
SYMATTR Value 1H
SYMATTR SpiceLine Rser=40
SYMBOL cap -416 -64 R0
SYMATTR InstName C3
SYMATTR Value 22µF
SYMBOL res -576 -208 R90
WINDOW 0 0 56 VBottom 2
WINDOW 3 32 56 VTop 2
SYMATTR InstName R2
SYMATTR Value 10
SYMBOL res 0 -192 R90
WINDOW 0 0 56 VBottom 2
WINDOW 3 32 56 VTop 2
SYMATTR InstName R6
SYMATTR Value 1
TEXT 32 -240 Left 2 !.lib 6bq5.inc
TEXT 32 -216 Left 2 !K L1 L2 1
TEXT -376 472 Left 2 !.tran 1 startup
TEXT 24 -288 Left 2 !;op 1 startup
