Version 4
SHEET 1 880 680
WIRE -1296 400 -960 400
WIRE 224 416 224 400
WIRE 224 400 640 400
WIRE 144 288 144 224
WIRE 144 368 144 400
WIRE 144 400 224 400
WIRE 176 -16 176 112
WIRE 240 -16 240 32
WIRE 240 32 336 32
WIRE 240 -96 240 -144
WIRE 240 -144 400 -144
WIRE 400 -16 400 32
WIRE 400 -96 400 -144
WIRE 640 224 640 400
WIRE 640 144 640 -224
WIRE 0 240 0 176
WIRE 0 176 128 176
WIRE 0 320 0 400
WIRE 0 400 144 400
WIRE 176 -96 176 -224
WIRE 640 -224 176 -224
WIRE 176 -224 128 -224
WIRE 48 -224 16 -224
WIRE -32 -224 -32 -192
WIRE -32 -128 -32 -96
WIRE 16 -224 16 -304
WIRE 16 -224 -32 -224
WIRE 224 160 336 160
WIRE -192 -128 -192 -96
WIRE -192 -224 -144 -224
WIRE -192 -224 -192 -192
WIRE -64 -224 -32 -224
WIRE -192 -224 -304 -224
WIRE -304 -224 -304 -80
WIRE -304 0 -304 64
WIRE 0 176 0 64
WIRE 0 64 -96 64
WIRE -160 64 -304 64
WIRE -304 64 -304 112
WIRE -336 208 -336 304
WIRE -336 384 -336 400
WIRE -336 400 0 400
WIRE -1296 400 -1296 320
WIRE -1296 240 -1296 160
WIRE -1296 160 -1216 160
WIRE -960 224 -960 160
WIRE -960 304 -960 400
WIRE -832 400 -448 400
WIRE 400 -144 480 -144
WIRE -656 224 -640 224
WIRE -640 224 -640 256
WIRE -640 256 -608 256
WIRE -1008 160 -960 160
WIRE 336 32 336 80
WIRE 336 32 400 32
WIRE -800 -224 -800 -80
WIRE -800 0 -800 48
WIRE -832 208 -832 256
WIRE -832 384 -832 400
WIRE -960 160 -848 160
WIRE -960 400 -832 400
WIRE -752 224 -736 224
WIRE -752 256 -832 256
WIRE -832 256 -832 304
WIRE -752 256 -752 224
WIRE -448 240 -448 160
WIRE -448 320 -448 400
WIRE -448 160 -448 48
WIRE -448 160 -352 160
WIRE -448 400 -336 400
WIRE -576 -128 -576 -96
WIRE -576 -224 -528 -224
WIRE -576 -224 -576 -192
WIRE -304 -224 -448 -224
WIRE -576 -224 -800 -224
WIRE -704 48 -800 48
WIRE -800 48 -800 112
WIRE -640 48 -448 48
WIRE -640 256 -640 304
WIRE -640 304 -656 304
WIRE -720 304 -752 304
WIRE -752 304 -752 256
WIRE -1072 160 -1136 160
FLAG 224 416 0
FLAG -32 -96 0
FLAG 16 -304 HT2
IOPIN 16 -304 Out
FLAG 336 160 HT2
IOPIN 336 160 In
FLAG -192 -96 0
FLAG 480 -144 NFB
IOPIN 480 -144 Out
FLAG -608 256 NFB
IOPIN -608 256 In
FLAG 336 80 0
FLAG -576 -96 0
SYMBOL C:\Program\ Files\LTC\SwCADIII\lib\sym\Misc\tetrode 176 160 R0
WINDOW 0 -83 -72 Left 0
WINDOW 3 -100 -46 Left 0
WINDOW 38 -100 -43 Left 0
SYMATTR InstName U1
SYMATTR Value ""
SYMATTR SpiceModel 6BQ5
SYMBOL C:\Program\ Files\LTC\SwCADIII\lib\sym\res 128 272 R0
SYMATTR InstName R1
SYMATTR Value 130
SYMBOL C:\Program\ Files\LTC\SwCADIII\lib\sym\ind2 160 -112 R0
WINDOW 0 -40 39 Left 0
WINDOW 3 -63 67 Left 0
SYMATTR InstName L1
SYMATTR Value 150H
SYMATTR Type ind
SYMATTR SpiceLine Rser=120 Cpar=120p
SYMBOL C:\Program\ Files\LTC\SwCADIII\lib\sym\ind2 256 -112 M0
WINDOW 0 -38 38 Left 0
WINDOW 3 -71 66 Left 0
SYMATTR InstName L2
SYMATTR Value 0.23H
SYMATTR Type ind
SYMATTR SpiceLine Rser=0.7
SYMBOL C:\Program\ Files\LTC\SwCADIII\lib\sym\res 384 -112 R0
SYMATTR InstName R2
SYMATTR Value 8
SYMBOL C:\Program\ Files\LTC\SwCADIII\lib\sym\voltage 640 128 R0
WINDOW 123 0 0 Left 0
WINDOW 39 24 132 Left 0
SYMATTR SpiceLine Rser=160
SYMATTR InstName V1
SYMATTR Value 300
SYMBOL C:\Program\ Files\LTC\SwCADIII\lib\sym\res 32 -208 R270
WINDOW 0 32 56 VTop 0
WINDOW 3 0 56 VBottom 0
SYMATTR InstName R3
SYMATTR Value 1K
SYMBOL C:\Program\ Files\LTC\SwCADIII\lib\sym\cap -48 -192 R0
SYMATTR InstName C2
SYMATTR Value 47µ
SYMBOL C:\Program\ Files\LTC\SwCADIII\lib\sym\res -16 224 R0
SYMATTR InstName R4
SYMATTR Value 470K
SYMBOL C:\Program\ Files\LTC\SwCADIII\lib\sym\cap -160 80 R270
WINDOW 0 32 32 VTop 0
WINDOW 3 0 32 VBottom 0
SYMATTR InstName C3
SYMATTR Value 22n
SYMBOL C:\Program\ Files\LTC\SwCADIII\lib\sym\voltage -1296 224 R0
WINDOW 123 24 132 Left 0
WINDOW 39 0 0 Left 0
SYMATTR Value2 AC 1 0
SYMATTR InstName V2
SYMATTR Value SINE(0 0.03447 400)
SYMBOL C:\Program\ Files\LTC\SwCADIII\lib\sym\Misc\triode -304 160 R0
WINDOW 0 61 -72 Left 0
WINDOW 3 61 -16 Invisible 0
WINDOW 38 53 -41 Left 0
SYMATTR InstName U2
SYMATTR Value ""
SYMATTR SpiceModel NH12AX7
SYMBOL C:\Program\ Files\LTC\SwCADIII\lib\sym\res -352 288 R0
SYMATTR InstName R5
SYMATTR Value 1.2K
SYMBOL C:\Program\ Files\LTC\SwCADIII\lib\sym\res -320 -96 R0
SYMATTR InstName R6
SYMATTR Value 100K
SYMBOL C:\Program\ Files\LTC\SwCADIII\lib\sym\res -160 -208 R270
WINDOW 0 32 56 VTop 0
WINDOW 3 0 56 VBottom 0
SYMATTR InstName R7
SYMATTR Value 10K
SYMBOL C:\Program\ Files\LTC\SwCADIII\lib\sym\cap -208 -192 R0
SYMATTR InstName C4
SYMATTR Value 10µ
SYMBOL C:\Program\ Files\LTC\SwCADIII\lib\sym\res -1232 176 R270
WINDOW 0 32 56 VTop 0
WINDOW 3 0 56 VBottom 0
SYMATTR InstName R8
SYMATTR Value 30K
SYMBOL C:\Program\ Files\LTC\SwCADIII\lib\sym\res -976 208 R0
SYMATTR InstName R9
SYMATTR Value 470K
SYMBOL C:\Program\ Files\LTC\SwCADIII\lib\sym\res -752 240 R270
WINDOW 0 32 56 VTop 0
WINDOW 3 0 56 VBottom 0
SYMATTR InstName R10
SYMATTR Value 160K
SYMBOL C:\Program\ Files\LTC\SwCADIII\lib\sym\Misc\triode -800 160 R0
WINDOW 0 61 -72 Left 0
WINDOW 3 61 -16 Invisible 0
WINDOW 38 53 -41 Left 0
SYMATTR InstName U3
SYMATTR Value ""
SYMATTR SpiceModel NH12AX7
SYMBOL C:\Program\ Files\LTC\SwCADIII\lib\sym\res -848 288 R0
SYMATTR InstName R11
SYMATTR Value 1.2K
SYMBOL C:\Program\ Files\LTC\SwCADIII\lib\sym\res -816 -96 R0
SYMATTR InstName R12
SYMATTR Value 100K
SYMBOL C:\Program\ Files\LTC\SwCADIII\lib\sym\res -464 224 R0
SYMATTR InstName R13
SYMATTR Value 470K
SYMBOL C:\Program\ Files\LTC\SwCADIII\lib\sym\res -544 -208 R270
WINDOW 0 32 56 VTop 0
WINDOW 3 0 56 VBottom 0
SYMATTR InstName R14
SYMATTR Value 10K
SYMBOL C:\Program\ Files\LTC\SwCADIII\lib\sym\cap -592 -192 R0
SYMATTR InstName C5
SYMATTR Value 10µ
SYMBOL C:\Program\ Files\LTC\SwCADIII\lib\sym\cap -704 64 R270
WINDOW 0 32 32 VTop 0
WINDOW 3 0 32 VBottom 0
SYMATTR InstName C6
SYMATTR Value 22n
SYMBOL C:\Program\ Files\LTC\SwCADIII\lib\sym\cap -656 288 R90
WINDOW 0 0 32 VBottom 0
WINDOW 3 32 32 VTop 0
SYMATTR InstName C7
SYMATTR Value 33p
SYMBOL C:\Program\ Files\LTC\SwCADIII\lib\sym\cap -1072 176 R270
WINDOW 0 32 32 VTop 0
WINDOW 3 0 32 VBottom 0
SYMATTR InstName C1
SYMATTR Value 22n
TEXT 184 -168 Left 0 !K1 L1 L2 0.9999
TEXT -200 560 Left 0 !.tran 100m
TEXT -1096 -288 Left 0 !.INC 6BQ5.INC
TEXT -200 520 Left 0 !;ac dec 50 1 1MEG
TEXT -1096 -320 Left 0 !.INC dmtriodep.inc
