Version 4
SHEET 1 880 680
WIRE -720 -224 -800 -224
WIRE -688 -224 -720 -224
WIRE -576 -224 -608 -224
WIRE -304 -224 -576 -224
WIRE -112 -224 -304 -224
WIRE -16 -224 -112 -224
WIRE 32 -224 -16 -224
WIRE 160 -224 112 -224
WIRE 640 -224 160 -224
WIRE -720 -192 -720 -224
WIRE -576 -192 -576 -224
WIRE -16 -192 -16 -224
WIRE 160 -192 160 -224
WIRE -720 -112 -720 -128
WIRE -576 -112 -576 -128
WIRE -16 -96 -16 -128
WIRE 160 -96 160 -128
WIRE -800 -80 -800 -224
WIRE -304 -80 -304 -224
WIRE -112 16 -112 -224
WIRE -800 48 -800 0
WIRE -704 48 -800 48
WIRE -576 48 -640 48
WIRE -304 64 -304 0
WIRE -160 64 -304 64
WIRE -1056 80 -1088 80
WIRE -944 80 -976 80
WIRE -576 80 -576 48
WIRE -800 112 -800 48
WIRE -304 112 -304 64
WIRE 640 144 640 -224
WIRE -1088 160 -1088 80
WIRE -1088 160 -1184 160
WIRE -1056 160 -1088 160
WIRE -944 160 -944 80
WIRE -944 160 -976 160
WIRE -848 160 -944 160
WIRE -352 160 -384 160
WIRE -576 208 -576 160
WIRE -496 208 -576 208
WIRE -384 208 -384 160
WIRE -384 208 -416 208
WIRE -1088 224 -1088 160
WIRE -832 240 -832 208
WIRE -704 240 -832 240
WIRE -576 256 -576 208
WIRE -336 256 -336 208
WIRE -144 256 -144 112
WIRE -832 304 -832 240
WIRE -704 304 -704 240
WIRE -1088 400 -1088 304
WIRE -832 400 -832 384
WIRE -704 400 -704 368
WIRE -704 400 -832 400
WIRE -576 400 -576 336
WIRE -576 400 -704 400
WIRE -336 400 -336 336
WIRE -336 400 -576 400
WIRE -144 400 -144 336
WIRE -144 400 -336 400
WIRE 640 400 640 224
WIRE 640 400 -144 400
FLAG 160 -96 0
FLAG -16 -96 0
FLAG -720 -112 0
FLAG -1088 400 0
FLAG -1184 160 Input
FLAG -576 -112 0
SYMBOL voltage 640 128 R0
WINDOW 123 0 0 Left 0
WINDOW 39 24 132 Left 0
SYMATTR SpiceLine Rser=160
SYMATTR InstName V1
SYMATTR Value 300
SYMBOL cap 144 -192 R0
SYMATTR InstName C2
SYMATTR Value 47µ
SYMBOL voltage -1248 -352 R0
WINDOW 123 24 132 Left 0
WINDOW 39 0 0 Left 0
SYMATTR Value2 AC 1 0
SYMATTR InstName V2
SYMATTR Value SINE(0 0.03447 400)
SYMBOL triode -304 160 R0
WINDOW 0 61 -72 Left 0
WINDOW 3 61 -16 Invisible 0
WINDOW 38 53 -41 Left 0
SYMATTR InstName U2
SYMATTR Value ""
SYMATTR SpiceModel NH12AX7
SYMBOL res -352 240 R0
SYMATTR InstName R5
SYMATTR Value 820
SYMBOL res -320 -96 R0
SYMATTR InstName R6
SYMATTR Value 100K
SYMBOL res 16 -208 R270
WINDOW 0 32 56 VTop 0
WINDOW 3 0 56 VBottom 0
SYMATTR InstName R7
SYMATTR Value 10K
SYMBOL cap -32 -192 R0
SYMATTR InstName C4
SYMATTR Value 10µ
SYMBOL res -1072 176 R270
WINDOW 0 32 56 VTop 0
WINDOW 3 0 56 VBottom 0
SYMATTR InstName R8
SYMATTR Value 68K
SYMBOL triode -800 160 R0
WINDOW 0 61 -72 Left 0
WINDOW 3 61 -16 Invisible 0
WINDOW 38 53 -41 Left 0
SYMATTR InstName U3
SYMATTR Value ""
SYMATTR SpiceModel NH12AX7
SYMBOL res -848 288 R0
SYMATTR InstName R11
SYMATTR Value 820
SYMBOL res -816 -96 R0
SYMATTR InstName R12
SYMATTR Value 100K
SYMBOL res -592 240 R0
SYMATTR InstName R13
SYMATTR Value 500K
SYMBOL res -704 -208 R270
WINDOW 0 32 56 VTop 0
WINDOW 3 0 56 VBottom 0
SYMATTR InstName R14
SYMATTR Value 10K
SYMBOL cap -736 -192 R0
SYMATTR InstName C5
SYMATTR Value 50µF
SYMBOL cap -704 64 R270
WINDOW 0 32 32 VTop 0
WINDOW 3 0 32 VBottom 0
SYMATTR InstName C6
SYMATTR Value 22n
SYMBOL cap -688 368 R180
WINDOW 0 -24 51 Left 2
WINDOW 3 -64 10 Left 2
SYMATTR InstName C7
SYMATTR Value 320µF
SYMBOL res -1072 96 R270
WINDOW 0 32 56 VTop 0
WINDOW 3 0 56 VBottom 0
SYMATTR InstName R15
SYMATTR Value 68K
SYMBOL res -1104 208 R0
SYMATTR InstName R16
SYMATTR Value 1Meg
SYMBOL res -592 64 R0
SYMATTR InstName R9
SYMATTR Value 500K
SYMBOL res -400 192 R90
WINDOW 0 0 56 VBottom 2
WINDOW 3 32 56 VTop 2
SYMATTR InstName R10
SYMATTR Value 470K
SYMBOL cap -592 -192 R0
SYMATTR InstName C1
SYMATTR Value 50µF
SYMBOL triode -112 64 R0
WINDOW 0 61 -72 Left 0
WINDOW 3 61 -16 Invisible 0
WINDOW 38 53 -41 Left 0
SYMATTR InstName U1
SYMATTR Value ""
SYMATTR SpiceModel NH12AX7
SYMBOL res -160 240 R0
SYMATTR InstName R1
SYMATTR Value 100K
TEXT -824 -360 Left 0 !.tran 100m
TEXT -824 -400 Left 0 !.INC 6BQ5.INC
TEXT -832 -376 Left 0 !;ac dec 50 1 1MEG
TEXT -832 -416 Left 0 !.INC dmtriodep.inc
