Version 4
SHEET 1 1084 936
WIRE -272 -352 -800 -352
WIRE -112 -352 -272 -352
WIRE 1008 -352 -112 -352
WIRE -272 -288 -272 -352
WIRE -112 -288 -112 -352
WIRE -272 -176 -272 -224
WIRE -112 -176 -112 -208
WIRE -112 -176 -272 -176
WIRE -96 -176 -112 -176
WIRE 32 -176 -96 -176
WIRE 192 -176 96 -176
WIRE 240 -176 192 -176
WIRE 368 -176 320 -176
WIRE 496 -176 368 -176
WIRE 720 -176 496 -176
WIRE 864 -176 720 -176
WIRE 496 -144 496 -176
WIRE 720 -144 720 -176
WIRE -800 -80 -800 -352
WIRE 864 -80 864 -176
WIRE 496 -64 496 -80
WIRE 720 -64 720 -80
WIRE 720 -64 496 -64
WIRE 496 -48 496 -64
WIRE 720 16 720 -64
WIRE -800 48 -800 0
WIRE -672 48 -800 48
WIRE -608 48 -672 48
WIRE -528 48 -544 48
WIRE -480 48 -528 48
WIRE -384 48 -416 48
WIRE 192 64 192 -176
WIRE 496 64 496 16
WIRE -528 80 -528 48
WIRE -800 112 -800 48
WIRE -96 112 -96 -176
WIRE -672 144 -672 48
WIRE -1072 160 -1296 160
WIRE -960 160 -1008 160
WIRE -848 160 -880 160
WIRE -384 160 -384 48
WIRE -384 160 -528 160
WIRE -352 160 -384 160
WIRE -256 160 -272 160
WIRE -144 160 -256 160
WIRE 496 160 496 128
WIRE 720 160 720 80
WIRE 720 160 496 160
WIRE 864 160 864 -16
WIRE 864 160 720 160
WIRE -528 176 -528 160
WIRE -1296 240 -1296 160
WIRE 368 256 368 -176
WIRE -832 272 -832 208
WIRE -672 272 -672 208
WIRE -672 272 -832 272
WIRE -832 304 -832 272
WIRE -672 304 -672 272
WIRE 192 304 192 144
WIRE 320 304 192 304
WIRE 368 320 368 304
WIRE 496 320 496 160
WIRE 496 320 368 320
WIRE -256 336 -256 160
WIRE 192 336 192 304
WIRE 192 336 -176 336
WIRE -960 608 -960 160
WIRE -128 656 -128 208
WIRE -128 656 -176 656
WIRE -80 656 -128 656
WIRE -176 720 -176 656
WIRE -80 720 -80 656
WIRE -1296 928 -1296 320
WIRE -960 928 -960 688
WIRE -960 928 -1296 928
WIRE -832 928 -832 384
WIRE -832 928 -960 928
WIRE -672 928 -672 368
WIRE -672 928 -832 928
WIRE -528 928 -528 256
WIRE -528 928 -672 928
WIRE -176 928 -176 800
WIRE -176 928 -528 928
WIRE -80 928 -80 784
WIRE -80 928 -176 928
WIRE 640 928 224 928
SYMBOL voltage -1424 -576 R0
WINDOW 123 0 0 Left 0
WINDOW 39 24 132 Left 0
SYMATTR SpiceLine Rser=160
SYMATTR InstName V1
SYMATTR Value 300
SYMBOL voltage -1296 224 R0
WINDOW 123 24 132 Left 0
WINDOW 39 0 0 Left 0
SYMATTR Value2 AC 1 0
SYMATTR InstName V2
SYMATTR Value SINE(0 0.03447 400)
SYMBOL res -976 592 R0
SYMATTR InstName R9
SYMATTR Value 1Meg
SYMBOL triode -800 160 R0
WINDOW 0 61 -72 Left 0
WINDOW 3 61 -16 Invisible 0
WINDOW 38 53 -41 Left 0
SYMATTR InstName U3
SYMATTR Value ""
SYMATTR SpiceModel NH12AX7
SYMBOL res -848 288 R0
SYMATTR InstName R11
SYMATTR Value 2.7K
SYMBOL res -816 -96 R0
SYMATTR InstName R12
SYMATTR Value 100K
SYMBOL cap -1072 176 R270
WINDOW 0 32 32 VTop 0
WINDOW 3 0 32 VBottom 0
SYMATTR InstName C1
SYMATTR Value 47nF
SYMBOL cap -688 144 R0
SYMATTR InstName C2
SYMATTR Value 47pF
SYMBOL cap -608 64 R270
WINDOW 0 32 32 VTop 0
WINDOW 3 0 32 VBottom 0
SYMATTR InstName C3
SYMATTR Value 22n
SYMBOL cap -480 64 R270
WINDOW 0 32 32 VTop 0
WINDOW 3 0 32 VBottom 0
SYMATTR InstName C4
SYMATTR Value 1nF
SYMBOL res -544 64 R0
SYMATTR InstName R1
SYMATTR Value 500K
SYMBOL res -544 160 R0
SYMATTR InstName R2
SYMATTR Value 500K
SYMBOL res -368 176 R270
WINDOW 0 32 56 VTop 0
WINDOW 3 0 56 VBottom 0
SYMATTR InstName R3
SYMATTR Value 100K
SYMBOL triode -96 160 R0
WINDOW 0 61 1 Left 0
WINDOW 3 61 -16 Invisible 0
WINDOW 38 62 16 Left 0
SYMATTR InstName U1
SYMATTR Value ""
SYMATTR SpiceModel NH12AX7
SYMBOL res -192 704 R0
SYMATTR InstName R4
SYMATTR Value 1.5K
SYMBOL cap -96 720 R0
SYMATTR InstName C5
SYMATTR Value 10µF
SYMBOL cap -688 304 R0
SYMATTR InstName C6
SYMATTR Value 680nF
SYMBOL res -976 176 R270
WINDOW 0 32 56 VTop 0
WINDOW 3 0 56 VBottom 0
SYMATTR InstName R5
SYMATTR Value 68K
SYMBOL res -128 -304 R0
SYMATTR InstName R6
SYMATTR Value 100K
SYMBOL cap -288 -288 R0
SYMATTR InstName C7
SYMATTR Value 470pF
SYMBOL cap 32 -160 R270
WINDOW 0 32 32 VTop 0
WINDOW 3 0 32 VBottom 0
SYMATTR InstName C9
SYMATTR Value 22n
SYMBOL res -160 320 R90
WINDOW 0 0 56 VBottom 2
WINDOW 3 32 56 VTop 2
SYMATTR InstName R7
SYMATTR Value 220K
SYMBOL res 176 48 R0
SYMATTR InstName R8
SYMATTR Value 220K
SYMBOL res 336 -192 R90
WINDOW 0 0 56 VBottom 2
WINDOW 3 32 56 VTop 2
SYMATTR InstName R10
SYMATTR Value 47K
SYMBOL diode 480 -48 R0
SYMATTR InstName D1
SYMATTR Value RFU02VS8S
SYMBOL diode 480 64 R0
SYMATTR InstName D2
SYMATTR Value RFU02VS8S
SYMBOL diode 480 -144 R0
SYMATTR InstName D3
SYMATTR Value RFU02VS8S
SYMBOL diode 704 -80 M180
WINDOW 0 24 64 Left 2
WINDOW 3 24 0 Left 2
SYMATTR InstName D4
SYMATTR Value RFU02VS8S
SYMBOL diode 704 80 M180
WINDOW 0 24 64 Left 2
WINDOW 3 24 0 Left 2
SYMATTR InstName D5
SYMATTR Value RFU02VS8S
SYMBOL cap 848 -80 R0
SYMATTR InstName C8
SYMATTR Value 1nF
TEXT -1096 -288 Left 0 !.INC 6BQ5.INC
TEXT -1096 -320 Left 0 !.INC dmtriodep.inc
