Version 4
SHEET 1 2136 680
WIRE 400 -272 160 -272
WIRE 592 -272 400 -272
WIRE 400 -240 400 -272
WIRE 960 -192 880 -192
WIRE 1136 -192 1024 -192
WIRE 1328 -192 1136 -192
WIRE 1472 -192 1408 -192
WIRE 1616 -192 1472 -192
WIRE 1792 -192 1616 -192
WIRE 1616 -160 1616 -192
WIRE 1792 -160 1792 -192
WIRE 1136 -144 1136 -192
WIRE 1792 -144 1792 -160
WIRE 592 -128 592 -272
WIRE 880 -128 880 -192
WIRE 1472 -128 1472 -192
WIRE 880 16 880 -48
WIRE 1136 16 1136 -80
WIRE 1136 16 880 16
WIRE 1152 16 1136 16
WIRE 1472 16 1472 -64
WIRE 1472 16 1152 16
WIRE 1616 16 1616 -80
WIRE 1616 16 1472 16
WIRE 1792 16 1792 -80
WIRE 1792 16 1616 16
WIRE 32 32 32 16
WIRE 160 32 160 -272
WIRE 160 32 32 32
WIRE 240 32 160 32
WIRE 288 32 240 32
WIRE 592 32 592 -48
WIRE 592 32 512 32
WIRE 672 32 592 32
WIRE 32 48 32 32
WIRE 672 48 672 32
WIRE 160 64 160 32
WIRE 1152 64 1152 16
WIRE 240 128 240 32
WIRE 288 128 240 128
WIRE 672 128 512 128
WIRE 160 144 160 128
WIRE 288 224 160 224
WIRE 576 224 512 224
WIRE 688 224 576 224
WIRE 160 240 160 224
WIRE 688 272 688 224
WIRE 160 320 160 304
WIRE 288 320 160 320
WIRE 576 320 576 304
WIRE 576 320 512 320
WIRE 160 368 160 320
FLAG 32 128 0
FLAG 1152 64 0
FLAG 160 144 0
FLAG 160 368 0
FLAG 688 352 0
SYMBOL ind2 576 -144 R0
SYMATTR InstName L1
SYMATTR Value 13.79µH
SYMATTR Type ind
SYMATTR SpiceLine Rser=100m
SYMBOL ind2 896 -32 R180
WINDOW 0 36 80 Left 2
WINDOW 3 36 40 Left 2
SYMATTR InstName L2
SYMATTR Value 2.19mH
SYMATTR Type ind
SYMATTR SpiceLine Rser=1
SYMBOL diode 960 -176 R270
WINDOW 0 32 32 VTop 2
WINDOW 3 0 32 VBottom 2
SYMATTR InstName D1
SYMATTR Value RFU02VS8S
SYMATTR Description Schottky diode
SYMATTR Type schottky
SYMBOL cap 1120 -144 R0
SYMATTR InstName C1
SYMATTR Value 10µF
SYMBOL voltage 32 32 R0
WINDOW 123 0 0 Left 0
WINDOW 39 0 0 Left 0
SYMATTR InstName V1
SYMATTR Value 24
SYMBOL cap 144 64 R0
SYMATTR InstName C2
SYMATTR Value 10µF
SYMATTR SpiceLine Rser=1
SYMBOL res 656 32 R0
SYMATTR InstName R2
SYMATTR Value 200K
SYMBOL res 1424 -208 R90
WINDOW 0 0 56 VBottom 2
WINDOW 3 32 56 VTop 2
SYMATTR InstName R1
SYMATTR Value 10K
SYMBOL cap 1456 -128 R0
SYMATTR InstName C3
SYMATTR Value 50µF
SYMBOL res 1600 -176 R0
SYMATTR InstName R3
SYMATTR Value 100K
SYMBOL current 1792 -160 R0
WINDOW 123 0 0 Left 0
WINDOW 39 0 0 Left 0
SYMATTR InstName I1
SYMATTR Value SINE(0 2m 100 0 1 0 1000)
SYMBOL PowerProducts\\LT3002 400 176 R0
SYMATTR InstName U1
SYMBOL cap 144 240 R0
SYMATTR InstName C4
SYMATTR Value 1µF
SYMBOL res 672 256 R0
SYMATTR InstName R4
SYMATTR Value 10K
SYMBOL res 560 208 R0
SYMATTR InstName R5
SYMATTR Value 115K
TEXT 608 -184 Left 2 !K1 L1 L2 1
TEXT 696 -392 Left 2 ;750032052
TEXT 272 -296 Left 2 !.tran 0 5 0 startup
TEXT 576 -336 Left 2 ;WURTH 750817018 2.19mH, 12.6:1
