Version 4
SHEET 1 2196 984
WIRE 64 -384 32 -384
WIRE 384 -384 224 -384
WIRE -256 -272 -496 -272
WIRE -96 -272 -192 -272
WIRE 32 -272 32 -384
WIRE 32 -272 -96 -272
WIRE 448 -272 448 -320
WIRE 640 -272 448 -272
WIRE -592 -256 -896 -256
WIRE 144 -256 144 -288
WIRE 256 -256 144 -256
WIRE 384 -256 384 -384
WIRE 384 -256 336 -256
WIRE 448 -256 448 -272
WIRE 448 -256 384 -256
WIRE -496 -240 -496 -272
WIRE -96 -240 -96 -272
WIRE 144 -240 144 -256
WIRE 640 -240 640 -272
WIRE -896 -176 -896 -256
WIRE -592 -176 -592 -256
WIRE -496 -144 -496 -160
WIRE -320 -144 -496 -144
WIRE -96 -144 -96 -176
WIRE -96 -144 -320 -144
WIRE 144 -144 144 -160
WIRE 144 -144 -96 -144
WIRE 448 -144 448 -192
WIRE 448 -144 144 -144
WIRE 640 -144 640 -160
WIRE 640 -144 448 -144
WIRE -496 -128 -496 -144
WIRE -320 -112 -320 -144
WIRE -96 -112 -96 -144
WIRE 448 -96 448 -144
WIRE 640 -96 640 -144
WIRE 144 -80 144 -144
WIRE -896 16 -896 -96
WIRE -784 16 -896 16
WIRE -592 16 -592 -96
WIRE -592 16 -784 16
WIRE -496 16 -496 -48
WIRE -256 16 -496 16
WIRE -96 16 -96 -48
WIRE -96 16 -192 16
WIRE 144 32 144 0
WIRE 256 32 144 32
WIRE 448 32 448 -32
WIRE 448 32 336 32
WIRE 640 32 640 -16
WIRE 640 32 448 32
WIRE -784 64 -784 16
WIRE 144 64 144 32
WIRE -96 112 -96 16
WIRE 80 112 -96 112
WIRE 448 112 448 32
WIRE 448 112 208 112
FLAG -320 -112 0
FLAG -784 64 0
FLAG 448 -320 Vout_p
SYMBOL voltage -896 -192 R0
WINDOW 123 0 0 Left 0
WINDOW 39 24 44 Left 2
SYMATTR InstName V1
SYMATTR Value SINE(0 308 50)
SYMATTR SpiceLine Rser=10
SYMBOL diode -256 -256 R270
WINDOW 0 32 32 VTop 2
WINDOW 3 0 32 VBottom 2
SYMATTR InstName D1
SYMBOL cap -112 -240 R0
SYMATTR InstName C4
SYMATTR Value 2000µF
SYMBOL ind2 -512 -256 R0
SYMATTR InstName L2
SYMATTR Value 29.7mH
SYMATTR Type ind
SYMBOL ind2 -512 -144 R0
SYMATTR InstName L3
SYMATTR Value 29.7mH
SYMATTR Type ind
SYMBOL ind2 -608 -192 R0
SYMATTR InstName L1
SYMATTR Value 10H
SYMATTR Type ind
SYMBOL diode -192 32 M270
WINDOW 0 32 32 VTop 2
WINDOW 3 0 32 VBottom 2
SYMATTR InstName D2
SYMBOL cap -112 -112 R0
SYMATTR InstName C1
SYMATTR Value 1000µF
SYMBOL cap 432 -256 R0
SYMATTR InstName C2
SYMATTR Value 10µF
SYMBOL res 624 -256 R0
SYMATTR InstName R2
SYMATTR Value 33
SYMBOL res 128 -256 R0
SYMATTR InstName R1
SYMATTR Value 5K6
SYMBOL res 352 -272 R90
WINDOW 0 0 56 VBottom 2
WINDOW 3 32 56 VTop 2
SYMATTR InstName R3
SYMATTR Value 1K
SYMBOL res 128 -96 R0
SYMATTR InstName R4
SYMATTR Value 6K8
SYMBOL res 352 16 R90
WINDOW 0 0 56 VBottom 2
WINDOW 3 32 56 VTop 2
SYMATTR InstName R5
SYMATTR Value 1K
SYMBOL cap 432 -96 R0
SYMATTR InstName C3
SYMATTR Value 10µF
SYMBOL res 624 -112 R0
SYMATTR InstName R6
SYMATTR Value 100R
SYMBOL LM337 144 112 M180
SYMATTR InstName U2
SYMBOL LM317 144 -352 R0
SYMATTR InstName U1
TEXT -618 -432 Left 2 !.tran 1
TEXT -640 -360 Left 2 !K L1 L2 L3 0.9
